/*--------------------------------*- C++ -*----------------------------------*\
| =========                 |                                                 |
| \\      /  F ield         | OpenFOAM: The Open Source CFD Toolbox           |
|  \\    /   O peration     | Version:  v1806                                 |
|   \\  /    A nd           | Web:      www.OpenFOAM.com                      |
|    \\/     M anipulation  |                                                 |
\*---------------------------------------------------------------------------*/
FoamFile
{
    version     2.0;
    format      ascii;
    class       volScalarField;
    location    "0";
    object      k;
}
// * * * * * * * * * * * * * * * * * * * * * * * * * * * * * * * * * * * * * //

dimensions      [0 2 -2 0 0 0 0];


internalField   uniform 0.02;

boundaryField
{
    in
    {
        type            fixedValue;
        value           uniform 0.02;
    }
    sideWall
    {
        type            kqRWallFunction;
        value           uniform 0.02;
    }
    bottomWall
    {
        type            kqRWallFunction;
        value           uniform 0.02;
    }
    upperWall
    {
        type            kqRWallFunction;
        value           uniform 0.02;
    }
    out
    {
        type            zeroGradient;
    }
}


// ************************************************************************* //
